16
frame 0 | Written by MDAnalysis XYZWriter (release 2.6.1)
       C    -2.86628    1.47800    0.12159
       C    -3.86722    0.45820    0.00206
       C    -3.67140   -0.86700   -0.04447
       C    -2.41724   -1.55421    0.02463
       C     1.93129   -0.71846    0.44427
       C     1.59427    0.49890   -0.22348
       H    -1.46921   -1.02718    0.09593
       H    -2.40230   -2.62796   -0.00262
       H     2.91731   -0.84573    0.87462
       H     1.20989   -1.50720    0.50818
       H     0.61010    0.60798   -0.67684
       H     2.33223    1.31342   -0.29110
       H    -1.80218    1.24866    0.22327
       H    -3.15889    2.52911    0.13327
       H    -4.89971    0.82165   -0.06322
       H    -4.54858   -1.50890   -0.13629
